26056
  -OEChem-05012517073D

 32 31  0     0  0  0  0  0  0999 V2000
    1.1989   -0.3090    0.3854 C   0  0  0  0  0  0  0  0  0  0  0  0
   -0.2494   -0.3421   -0.1587 C   0  0  0  0  0  0  0  0  0  0  0  0
   -1.2998    0.1398    0.8495 C   0  0  0  0  0  0  0  0  0  0  0  0
   -2.7447    0.0257    0.3261 C   0  0  0  0  0  0  0  0  0  0  0  0
    1.6975    1.1123    0.7255 C   0  0  0  0  0  0  0  0  0  0  0  0
    2.1182   -1.0632   -0.6016 C   0  0  0  0  0  0  0  0  0  0  0  0
   -3.1054   -1.4034   -0.0821 C   0  0  0  0  0  0  0  0  0  0  0  0
   -2.9417    0.9686   -0.8633 C   0  0  0  0  0  0  0  0  0  0  0  0
    1.7685    2.0719   -0.4539 C   0  0  0  0  0  0  0  0  0  0  0  0
    3.5578   -1.2006   -0.1269 C   0  0  0  0  0  0  0  0  0  0  0  0
    1.2053   -0.8784    1.3256 H   0  0  0  0  0  0  0  0  0  0  0  0
   -0.3033    0.2390   -1.0846 H   0  0  0  0  0  0  0  0  0  0  0  0
   -0.4723   -1.3798   -0.4316 H   0  0  0  0  0  0  0  0  0  0  0  0
   -1.1094    1.1828    1.1258 H   0  0  0  0  0  0  0  0  0  0  0  0
   -1.2102   -0.4509    1.7698 H   0  0  0  0  0  0  0  0  0  0  0  0
   -3.4189    0.3386    1.1329 H   0  0  0  0  0  0  0  0  0  0  0  0
    2.6901    1.0510    1.1866 H   0  0  0  0  0  0  0  0  0  0  0  0
    1.0538    1.5527    1.4954 H   0  0  0  0  0  0  0  0  0  0  0  0
    1.7200   -2.0747   -0.7532 H   0  0  0  0  0  0  0  0  0  0  0  0
    2.1061   -0.5788   -1.5848 H   0  0  0  0  0  0  0  0  0  0  0  0
   -4.1793   -1.4759   -0.2879 H   0  0  0  0  0  0  0  0  0  0  0  0
   -2.5824   -1.7251   -0.9880 H   0  0  0  0  0  0  0  0  0  0  0  0
   -2.8738   -2.1095    0.7221 H   0  0  0  0  0  0  0  0  0  0  0  0
   -4.0009    1.0062   -1.1417 H   0  0  0  0  0  0  0  0  0  0  0  0
   -2.3867    0.6464   -1.7497 H   0  0  0  0  0  0  0  0  0  0  0  0
   -2.6311    1.9886   -0.6134 H   0  0  0  0  0  0  0  0  0  0  0  0
    2.4437    1.7067   -1.2326 H   0  0  0  0  0  0  0  0  0  0  0  0
    0.7827    2.2404   -0.8964 H   0  0  0  0  0  0  0  0  0  0  0  0
    2.1473    3.0432   -0.1186 H   0  0  0  0  0  0  0  0  0  0  0  0
    4.1152   -1.8535   -0.8066 H   0  0  0  0  0  0  0  0  0  0  0  0
    4.0698   -0.2343   -0.1088 H   0  0  0  0  0  0  0  0  0  0  0  0
    3.6021   -1.6388    0.8750 H   0  0  0  0  0  0  0  0  0  0  0  0
  1  2  1  0  0  0  0
  1  5  1  0  0  0  0
  1  6  1  0  0  0  0
  1 11  1  0  0  0  0
  2  3  1  0  0  0  0
  2 12  1  0  0  0  0
  2 13  1  0  0  0  0
  3  4  1  0  0  0  0
  3 14  1  0  0  0  0
  3 15  1  0  0  0  0
  4  7  1  0  0  0  0
  4  8  1  0  0  0  0
  4 16  1  0  0  0  0
  5  9  1  0  0  0  0
  5 17  1  0  0  0  0
  5 18  1  0  0  0  0
  6 10  1  0  0  0  0
  6 19  1  0  0  0  0
  6 20  1  0  0  0  0
  7 21  1  0  0  0  0
  7 22  1  0  0  0  0
  7 23  1  0  0  0  0
  8 24  1  0  0  0  0
  8 25  1  0  0  0  0
  8 26  1  0  0  0  0
  9 27  1  0  0  0  0
  9 28  1  0  0  0  0
  9 29  1  0  0  0  0
 10 30  1  0  0  0  0
 10 31  1  0  0  0  0
 10 32  1  0  0  0  0
M  END
> <PUBCHEM_COMPOUND_CID>
26056

> <PUBCHEM_CONFORMER_RMSD>
0.6

> <PUBCHEM_CONFORMER_DIVERSEORDER>
1
5
3
6
4
7
8
2
9

> <PUBCHEM_MMFF94_PARTIAL_CHARGES>
0

> <PUBCHEM_EFFECTIVE_ROTOR_COUNT>
5

> <PUBCHEM_PHARMACOPHORE_FEATURES>
4
1 10 hydrophobe
1 9 hydrophobe
3 4 7 8 hydrophobe
6 1 2 3 4 5 6 hydrophobe

> <PUBCHEM_HEAVY_ATOM_COUNT>
10

> <PUBCHEM_ATOM_DEF_STEREO_COUNT>
0

> <PUBCHEM_ATOM_UDEF_STEREO_COUNT>
0

> <PUBCHEM_BOND_DEF_STEREO_COUNT>
0

> <PUBCHEM_BOND_UDEF_STEREO_COUNT>
0

> <PUBCHEM_ISOTOPIC_ATOM_COUNT>
0

> <PUBCHEM_COMPONENT_COUNT>
1

> <PUBCHEM_CACTVS_TAUTO_COUNT>
1

> <PUBCHEM_CONFORMER_ID>
000065C800000001

> <PUBCHEM_MMFF94_ENERGY>
8.7721

> <PUBCHEM_FEATURE_SELFOVERLAP>
20.304

> <PUBCHEM_SHAPE_FINGERPRINT>
10219947 1 17917990534436242534
12932741 1 17822018648039896995
12932764 1 17894627041843065859
14325111 11 18341049704796021227
14390081 3 17967526896184713521
15310529 11 18272088361472141821
17041 50 18335135345740319388
170605 34 18043810003396932080
18186145 218 18187638103337460865
19973954 147 18408322198571249661
20201158 50 18271243820277608775
20645477 70 18342737438250151175
20653085 51 18261112950662864337
20653091 64 18341901792116595066
20711985 327 18059300859875491826
21130352 189 18336825308092123348
21524375 3 17831297572986321472
23532345 88 18338793524004918022
23552423 10 18411419531332057955
3248919 1 17632582638813285571
5084963 1 18413672426256687851
8030462 33 17561086925260920913
93112 12 18408601448733412383
9939556 21 18342461434908274865

> <PUBCHEM_SHAPE_MULTIPOLES>
205.8
5.83
1.74
0.9
1.16
0.54
-0.01
-1.55
0.75
-0.84
0.29
0.12
0.14
0.34

> <PUBCHEM_SHAPE_SELFOVERLAP>
365.323

> <PUBCHEM_SHAPE_VOLUME>
136.6

> <PUBCHEM_COORDINATE_TYPE>
2
5
10

$$$$
