18312
  -OEChem-05012517103D

 29 28  0     0  0  0  0  0  0999 V2000
   -0.4893    0.1445    0.4461 C   0  0  0  0  0  0  0  0  0  0  0  0
    0.5784    1.0545   -0.2066 C   0  0  0  0  0  0  0  0  0  0  0  0
    2.0178    0.4992   -0.2359 C   0  0  0  0  0  0  0  0  0  0  0  0
   -0.7012   -1.1942   -0.2969 C   0  0  0  0  0  0  0  0  0  0  0  0
   -1.8362    0.8876    0.6072 C   0  0  0  0  0  0  0  0  0  0  0  0
    2.4692    0.1640    1.1892 C   0  0  0  0  0  0  0  0  0  0  0  0
    2.1442   -0.7420   -1.1201 C   0  0  0  0  0  0  0  0  0  0  0  0
   -1.7235   -2.1317    0.3315 C   0  0  0  0  0  0  0  0  0  0  0  0
   -2.4595    1.3182   -0.7145 C   0  0  0  0  0  0  0  0  0  0  0  0
   -0.1667   -0.0916    1.4675 H   0  0  0  0  0  0  0  0  0  0  0  0
    0.2877    1.2863   -1.2385 H   0  0  0  0  0  0  0  0  0  0  0  0
    0.5951    2.0129    0.3293 H   0  0  0  0  0  0  0  0  0  0  0  0
    2.6670    1.2861   -0.6399 H   0  0  0  0  0  0  0  0  0  0  0  0
    0.2083   -1.7830   -0.2574 H   0  0  0  0  0  0  0  0  0  0  0  0
   -0.9432   -1.0314   -1.3524 H   0  0  0  0  0  0  0  0  0  0  0  0
   -1.6718    1.7846    1.2180 H   0  0  0  0  0  0  0  0  0  0  0  0
   -2.5519    0.2775    1.1687 H   0  0  0  0  0  0  0  0  0  0  0  0
    2.3193    1.0165    1.8600 H   0  0  0  0  0  0  0  0  0  0  0  0
    3.5387   -0.0749    1.1949 H   0  0  0  0  0  0  0  0  0  0  0  0
    1.9451   -0.7015    1.6061 H   0  0  0  0  0  0  0  0  0  0  0  0
    3.1433   -0.7348   -1.5761 H   0  0  0  0  0  0  0  0  0  0  0  0
    1.4370   -0.7445   -1.9544 H   0  0  0  0  0  0  0  0  0  0  0  0
    2.1090   -1.6845   -0.5677 H   0  0  0  0  0  0  0  0  0  0  0  0
   -1.5272   -2.2722    1.3991 H   0  0  0  0  0  0  0  0  0  0  0  0
   -1.6809   -3.1136   -0.1520 H   0  0  0  0  0  0  0  0  0  0  0  0
   -2.7432   -1.7555    0.2096 H   0  0  0  0  0  0  0  0  0  0  0  0
   -2.6753    0.4656   -1.3638 H   0  0  0  0  0  0  0  0  0  0  0  0
   -1.8232    2.0218   -1.2579 H   0  0  0  0  0  0  0  0  0  0  0  0
   -3.4098    1.8276   -0.5208 H   0  0  0  0  0  0  0  0  0  0  0  0
  1  2  1  0  0  0  0
  1  4  1  0  0  0  0
  1  5  1  0  0  0  0
  1 10  1  0  0  0  0
  2  3  1  0  0  0  0
  2 11  1  0  0  0  0
  2 12  1  0  0  0  0
  3  6  1  0  0  0  0
  3  7  1  0  0  0  0
  3 13  1  0  0  0  0
  4  8  1  0  0  0  0
  4 14  1  0  0  0  0
  4 15  1  0  0  0  0
  5  9  1  0  0  0  0
  5 16  1  0  0  0  0
  5 17  1  0  0  0  0
  6 18  1  0  0  0  0
  6 19  1  0  0  0  0
  6 20  1  0  0  0  0
  7 21  1  0  0  0  0
  7 22  1  0  0  0  0
  7 23  1  0  0  0  0
  8 24  1  0  0  0  0
  8 25  1  0  0  0  0
  8 26  1  0  0  0  0
  9 27  1  0  0  0  0
  9 28  1  0  0  0  0
  9 29  1  0  0  0  0
M  END
> <PUBCHEM_COMPOUND_CID>
18312

> <PUBCHEM_CONFORMER_RMSD>
0.6

> <PUBCHEM_CONFORMER_DIVERSEORDER>
3
2
1

> <PUBCHEM_MMFF94_PARTIAL_CHARGES>
0

> <PUBCHEM_EFFECTIVE_ROTOR_COUNT>
4

> <PUBCHEM_PHARMACOPHORE_FEATURES>
4
1 8 hydrophobe
1 9 hydrophobe
3 3 6 7 hydrophobe
5 1 2 3 4 5 hydrophobe

> <PUBCHEM_HEAVY_ATOM_COUNT>
9

> <PUBCHEM_ATOM_DEF_STEREO_COUNT>
0

> <PUBCHEM_ATOM_UDEF_STEREO_COUNT>
0

> <PUBCHEM_BOND_DEF_STEREO_COUNT>
0

> <PUBCHEM_BOND_UDEF_STEREO_COUNT>
0

> <PUBCHEM_ISOTOPIC_ATOM_COUNT>
0

> <PUBCHEM_COMPONENT_COUNT>
1

> <PUBCHEM_CACTVS_TAUTO_COUNT>
1

> <PUBCHEM_CONFORMER_ID>
0000478800000003

> <PUBCHEM_MMFF94_ENERGY>
16.6607

> <PUBCHEM_FEATURE_SELFOVERLAP>
20.353

> <PUBCHEM_SHAPE_FINGERPRINT>
12138202 97 18341884208177626308
12716758 59 18412545375177296971
12932741 1 17989494030316347468
12932764 1 17968103035729597192
15310529 11 16878239596617242596
20082192 1 18339658826818808232
20711978 78 16414103891403221566
20711983 171 15864640444708388469
20711985 344 18262530306691775703
21040471 1 18337675208899640913
23235685 24 18270127815890922561
23552423 10 18115876384753019366
24536 1 18202006555274617952
2748010 2 18272662259112831422
29004967 10 17632303418699595792
5084963 1 18200882751190587509

> <PUBCHEM_SHAPE_MULTIPOLES>
185.22
3.75
1.78
1.07
0.74
0.83
-0.02
-0.45
0.03
-1.35
0.06
0.45
-0.01
0.46

> <PUBCHEM_SHAPE_SELFOVERLAP>
328.618

> <PUBCHEM_SHAPE_VOLUME>
123.1

> <PUBCHEM_COORDINATE_TYPE>
2
5
10

$$$$
