537768
  -OEChem-05012517143D

 35 34  0     0  0  0  0  0  0999 V2000
   -1.8740    0.3437    0.3946 C   0  0  0  0  0  0  0  0  0  0  0  0
   -0.5325    0.8289   -0.2046 C   0  0  0  0  0  0  0  0  0  0  0  0
    0.7243    0.2356    0.4436 C   0  0  0  0  0  0  0  0  0  0  0  0
    1.9911    0.7172   -0.2736 C   0  0  0  0  0  0  0  0  0  0  0  0
   -3.0649    0.9413   -0.3878 C   0  0  0  0  0  0  0  0  0  0  0  0
   -1.9850   -1.1920    0.5036 C   0  0  0  0  0  0  0  0  0  0  0  0
    3.2890    0.1345    0.3161 C   0  0  0  0  0  0  0  0  0  0  0  0
   -4.4229    0.5998    0.2118 C   0  0  0  0  0  0  0  0  0  0  0  0
   -1.9412   -1.9112   -0.8380 C   0  0  0  0  0  0  0  0  0  0  0  0
    3.3182   -1.3939    0.2702 C   0  0  0  0  0  0  0  0  0  0  0  0
    4.4980    0.6962   -0.4360 C   0  0  0  0  0  0  0  0  0  0  0  0
   -1.9232    0.7349    1.4205 H   0  0  0  0  0  0  0  0  0  0  0  0
   -0.4890    1.9229   -0.1217 H   0  0  0  0  0  0  0  0  0  0  0  0
   -0.5180    0.6072   -1.2793 H   0  0  0  0  0  0  0  0  0  0  0  0
    0.7627    0.5106    1.5037 H   0  0  0  0  0  0  0  0  0  0  0  0
    0.6818   -0.8540    0.3829 H   0  0  0  0  0  0  0  0  0  0  0  0
    2.0339    1.8126   -0.2227 H   0  0  0  0  0  0  0  0  0  0  0  0
    1.9254    0.4544   -1.3375 H   0  0  0  0  0  0  0  0  0  0  0  0
   -3.0397    0.6327   -1.4389 H   0  0  0  0  0  0  0  0  0  0  0  0
   -2.9629    2.0342   -0.3895 H   0  0  0  0  0  0  0  0  0  0  0  0
   -2.9114   -1.4663    1.0210 H   0  0  0  0  0  0  0  0  0  0  0  0
   -1.1873   -1.5815    1.1456 H   0  0  0  0  0  0  0  0  0  0  0  0
    3.3685    0.4470    1.3651 H   0  0  0  0  0  0  0  0  0  0  0  0
   -5.2051    1.1850   -0.2830 H   0  0  0  0  0  0  0  0  0  0  0  0
   -4.4535    0.8327    1.2807 H   0  0  0  0  0  0  0  0  0  0  0  0
   -4.6734   -0.4558    0.0745 H   0  0  0  0  0  0  0  0  0  0  0  0
   -2.7880   -1.6394   -1.4741 H   0  0  0  0  0  0  0  0  0  0  0  0
   -1.9904   -2.9933   -0.6768 H   0  0  0  0  0  0  0  0  0  0  0  0
   -1.0154   -1.7033   -1.3816 H   0  0  0  0  0  0  0  0  0  0  0  0
    2.5739   -1.8301    0.9431 H   0  0  0  0  0  0  0  0  0  0  0  0
    4.2953   -1.7729    0.5893 H   0  0  0  0  0  0  0  0  0  0  0  0
    3.1274   -1.7653   -0.7423 H   0  0  0  0  0  0  0  0  0  0  0  0
    5.4332    0.3304    0.0012 H   0  0  0  0  0  0  0  0  0  0  0  0
    4.4805    0.4048   -1.4917 H   0  0  0  0  0  0  0  0  0  0  0  0
    4.5134    1.7901   -0.3859 H   0  0  0  0  0  0  0  0  0  0  0  0
  1  2  1  0  0  0  0
  1  5  1  0  0  0  0
  1  6  1  0  0  0  0
  1 12  1  0  0  0  0
  2  3  1  0  0  0  0
  2 13  1  0  0  0  0
  2 14  1  0  0  0  0
  3  4  1  0  0  0  0
  3 15  1  0  0  0  0
  3 16  1  0  0  0  0
  4  7  1  0  0  0  0
  4 17  1  0  0  0  0
  4 18  1  0  0  0  0
  5  8  1  0  0  0  0
  5 19  1  0  0  0  0
  5 20  1  0  0  0  0
  6  9  1  0  0  0  0
  6 21  1  0  0  0  0
  6 22  1  0  0  0  0
  7 10  1  0  0  0  0
  7 11  1  0  0  0  0
  7 23  1  0  0  0  0
  8 24  1  0  0  0  0
  8 25  1  0  0  0  0
  8 26  1  0  0  0  0
  9 27  1  0  0  0  0
  9 28  1  0  0  0  0
  9 29  1  0  0  0  0
 10 30  1  0  0  0  0
 10 31  1  0  0  0  0
 10 32  1  0  0  0  0
 11 33  1  0  0  0  0
 11 34  1  0  0  0  0
 11 35  1  0  0  0  0
M  END
> <PUBCHEM_COMPOUND_CID>
537768

> <PUBCHEM_CONFORMER_RMSD>
0.6

> <PUBCHEM_CONFORMER_DIVERSEORDER>
1
20
6
25
19
2
16
13
26
7
11
4
8
5
9
17
12
14
21
10
24
23
15
18
22
3

> <PUBCHEM_MMFF94_PARTIAL_CHARGES>
0

> <PUBCHEM_EFFECTIVE_ROTOR_COUNT>
6

> <PUBCHEM_PHARMACOPHORE_FEATURES>
5
1 8 hydrophobe
1 9 hydrophobe
3 3 4 7 hydrophobe
3 7 10 11 hydrophobe
4 1 2 5 6 hydrophobe

> <PUBCHEM_HEAVY_ATOM_COUNT>
11

> <PUBCHEM_ATOM_DEF_STEREO_COUNT>
0

> <PUBCHEM_ATOM_UDEF_STEREO_COUNT>
0

> <PUBCHEM_BOND_DEF_STEREO_COUNT>
0

> <PUBCHEM_BOND_UDEF_STEREO_COUNT>
0

> <PUBCHEM_ISOTOPIC_ATOM_COUNT>
0

> <PUBCHEM_COMPONENT_COUNT>
1

> <PUBCHEM_CACTVS_TAUTO_COUNT>
1

> <PUBCHEM_CONFORMER_ID>
000834A800000001

> <PUBCHEM_MMFF94_ENERGY>
8.2912

> <PUBCHEM_FEATURE_SELFOVERLAP>
25.843

> <PUBCHEM_SHAPE_FINGERPRINT>
11062470 55 18343302556760902712
12500047 106 18342733035549476130
12932764 1 18270965751388974256
14123238 8 18041000648013654161
14325111 11 18335421274877495816
14577589 140 18410857676669033119
15242433 33 18410014329817734574
15775835 57 18409450288810959106
17834076 25 18059858359056770976
18186145 218 16298102107975075880
187816 3 17632576037870694417
190213 19 17240486892237860521
200 152 9439401303016367017
20201158 50 18131354089778449110
20211469 26 11672063042856706113
20279233 1 17704078399636645230
20281407 28 18272651268428469512
20528008 55 18202278104381376160
20645477 56 18334572455943054125
20645477 70 18337110056129487990
21119208 17 18334296457181196332
22485316 2 18413105078525761128
23402539 116 18131344190433025205
23402655 69 18335424565060022820
23559900 14 18131067152331292856
3248919 1 17676764383340140258
366044 4 18413670193490865699
4175511 318 18334572438868362165
58051976 100 18337955691849650327
69090 78 18412821378782449367
93112 12 18411980295052218892
9939556 21 18336266841915754109

> <PUBCHEM_SHAPE_MULTIPOLES>
226.37
8.53
1.54
0.8
3.11
0.82
0.04
-1.21
0.24
-0.46
0.23
-0.1
0.11
-0.39

> <PUBCHEM_SHAPE_SELFOVERLAP>
402.92

> <PUBCHEM_SHAPE_VOLUME>
149.7

> <PUBCHEM_COORDINATE_TYPE>
2
5
10

$$$$
