12406078
  -OEChem-05012517513D

 15 14  0     1  0  0  0  0  0999 V2000
   -2.2135    0.8865   -0.3773 Cl  0  0  0  0  0  0  0  0  0  0  0  0
   -0.7465   -0.1288   -0.2631 C   0  0  1  0  0  0  0  0  0  0  0  0
    0.2629    0.5729    0.5982 C   0  0  0  0  0  0  0  0  0  0  0  0
   -1.1129   -1.4929    0.3066 C   0  0  0  0  0  0  0  0  0  0  0  0
    1.5880    0.4839    0.4105 C   0  0  0  0  0  0  0  0  0  0  0  0
    2.2219   -0.3216   -0.6748 C   0  0  0  0  0  0  0  0  0  0  0  0
   -0.4013   -0.2360   -1.2948 H   0  0  0  0  0  0  0  0  0  0  0  0
   -0.0933    1.1689    1.4355 H   0  0  0  0  0  0  0  0  0  0  0  0
   -1.5249   -1.4122    1.3193 H   0  0  0  0  0  0  0  0  0  0  0  0
   -1.8603   -1.9904   -0.3213 H   0  0  0  0  0  0  0  0  0  0  0  0
   -0.2364   -2.1484    0.3557 H   0  0  0  0  0  0  0  0  0  0  0  0
    2.2502    1.0265    1.0794 H   0  0  0  0  0  0  0  0  0  0  0  0
    1.5648   -1.0605   -1.1376 H   0  0  0  0  0  0  0  0  0  0  0  0
    3.0702   -0.8758   -0.2586 H   0  0  0  0  0  0  0  0  0  0  0  0
    2.6074    0.3422   -1.4547 H   0  0  0  0  0  0  0  0  0  0  0  0
  1  2  1  0  0  0  0
  2  3  1  0  0  0  0
  2  4  1  0  0  0  0
  2  7  1  0  0  0  0
  3  5  2  0  0  0  0
  3  8  1  0  0  0  0
  4  9  1  0  0  0  0
  4 10  1  0  0  0  0
  4 11  1  0  0  0  0
  5  6  1  0  0  0  0
  5 12  1  0  0  0  0
  6 13  1  0  0  0  0
  6 14  1  0  0  0  0
  6 15  1  0  0  0  0
M  END
> <PUBCHEM_COMPOUND_CID>
12406078

> <PUBCHEM_CONFORMER_RMSD>
0.4

> <PUBCHEM_CONFORMER_DIVERSEORDER>
1
2
3

> <PUBCHEM_MMFF94_PARTIAL_CHARGES>
7
1 -0.29
12 0.15
2 0.43
3 -0.29
5 -0.29
6 0.14
8 0.15

> <PUBCHEM_EFFECTIVE_ROTOR_COUNT>
1

> <PUBCHEM_PHARMACOPHORE_FEATURES>
1
1 6 hydrophobe

> <PUBCHEM_HEAVY_ATOM_COUNT>
6

> <PUBCHEM_ATOM_DEF_STEREO_COUNT>
1

> <PUBCHEM_ATOM_UDEF_STEREO_COUNT>
0

> <PUBCHEM_BOND_DEF_STEREO_COUNT>
1

> <PUBCHEM_BOND_UDEF_STEREO_COUNT>
0

> <PUBCHEM_ISOTOPIC_ATOM_COUNT>
0

> <PUBCHEM_COMPONENT_COUNT>
1

> <PUBCHEM_CACTVS_TAUTO_COUNT>
1

> <PUBCHEM_CONFORMER_ID>
00BD4D3E00000001

> <PUBCHEM_MMFF94_ENERGY>
3.0986

> <PUBCHEM_FEATURE_SELFOVERLAP>
5.074

> <PUBCHEM_SHAPE_FINGERPRINT>
139733 1 12468633962957255936
16714656 1 18187366510674459445
20096714 4 18186792569799572177
21040471 1 18262507109504571945
24536 1 18266726060084820172
29004967 10 17703232922402634898
5460574 1 10881402010719507781

> <PUBCHEM_SHAPE_MULTIPOLES>
125.35
3.03
1.24
0.84
0.39
0.42
0.02
-0.42
0.66
-0.59
-0.11
0.15
-0.03
0.33

> <PUBCHEM_SHAPE_SELFOVERLAP>
212.967

> <PUBCHEM_SHAPE_VOLUME>
85.7

> <PUBCHEM_COORDINATE_TYPE>
2
5
10

$$$$
