9
    Energy:      -3.6753825
C       -0.29942     0.14412    -0.03914
Cl       0.28700     1.67669     0.63471
O       -1.54805    -0.28926     0.55884
H       -1.72774    -1.16346     0.23129
C        0.67666    -0.98953     0.17265
H       -0.48339     0.32636    -1.08030
H        1.72774    -0.68711     0.14014
H        0.50520    -1.67669    -0.66535
H        0.49286    -1.56571     1.08030
